app/Estudos SEP - UFF 2025/vC/CASO06-FLOW.PWF
(
( Gravacao de .PWF - CART
( Versao do Anarede: 12.01.00
( Data e Hora da Gravacao: 03/12/2025 - 17:25:02                                                           
(
TITU
Intercambio 1                                                                   
DOPC IMPR
(Op) E (Op) E (Op) E (Op) E (Op) E (Op) E (Op) E (Op) E (Op) E (Op) E
QLIM L VLIM L CREM L CTAP L STEP L NEWT L RCVG L RMON L FILE L SUBS L
CONT L NOVO L CELO L MFCT L AREG L STPO L VLCR L PMIN L CPHS L INMN L
IANG L UNPG L
99999
DCTE
(Mn) ( Val) (Mn) ( Val) (Mn) ( Val) (Mn) ( Val) (Mn) ( Val) (Mn) ( Val) 
BASE   100. DASE   100. TEPA    .01 EXST    .04 TETP     5. TBPA     5.
TLPP     1. TEPR    .01 QLST    .04 TLPR    .01 TLPQ     2. TSBZ    .01
TSBA     5. ASTP    .05 VSTP     5. TLVC    .05 TLTC    .01 TSFR  .1E-7
ZMAX   500. TLPV     .5 VDVM   200. VDVN    40. TUDC   .001 TADC    .01
PGER    30. TPST    .02 VFLD    70. ZMIN  .0001 HIST    470 LFIT     10
ACIT    100 LFCV      1 DCIT     10 VSIT     10 LPIT     50 LFLP     10
PDIT     10 LCRT    200 LPRT     60 CSTP     5. ASDC     1.
ICIT     50 DMAX      5 FDIV     2. ICMN    .05 VART     5. TSTP     32
ICMV     .5 APAS    90. CPAR    70. VAVT     2. VAVF     5. VMVF    15.
VPVT     2. VPVF     5. VPMF    10. VSVF    20. VINF     1. VSUP     1.
TLSI     0. NDIR    20. STTR     5. TRPT   100. STIR     1. BFPO     1.
LFPO     .1 TLMT     0. TLMF     0. TLMG     0. PARS    10.            
99999
DBAR
(Num)OETGb(   nome   )Gl( V)( A)( Pg)( Qg)( Qn)( Qm)(Bc  )( Pl)( Ql)( Sh)Are(Vf)M(1)(2)(3)(4)(5)(6)(7)(8)(9)(10
   10 L1 VANGRA1UNE001 5 977-9.1 561.41.26 -70. 288.       35.5 22.7     2511000                                   
   11 L1 VANGRA2UNE001 5 974-12. 594.3.094-350. 600.        54. 39.9     2511000                                   
   12 L1 VLCBARRUHE003 5 9853.03383.9-111.-270. 210.                     2041000                                   
   13 L1 TLCBARRSIN001 5 983-.92   0. -45.-140.  70.                     2041000                                   
   14 L1 VFUNIL-UHE001 5 983-17.70.28-24.2-100. 100.                     2551000                                   
   16 L1 VFURNASUHE002 5 999-2.3232.6-104.-150. 150.                     3521000                                   
   17 L1 TFURNASSIN002 5 970-5.7   0.-72.5-160.  80.                     3521000                                   
   18 L1 VITUMBIUHE001 5 99019.2326.3-132.-182. 200.                     3511000                                   
   19 L1 TITUMBISIN001 5 98915.5   0.-73.9 -91. 100.                     3511000                                   
   20 L1 VMARIMBUHE003 510128.87544.8-179.-320. 320.                     3511000                                   
   21 L1 VMANSO-UHE001 5 99345.9  28.5.123 -20.  21.                     4721000                                   
   22 L1 VM.MORAUHE003 5 9991.76121.2-5.55 -80.  84.                     3521000                                   
   23 L1 TCBRAV-SIN001 5100137.3   0.   0.   0.   0.                     5131000                                   
   24 L1 VM.MORBUHE002 5 963.42570.6619.85 -18. 46.5                     2081000                                   
   28 L1 VPCOLOMUHE002 51012-.11138.3-1.78 -75.  75.                     2081000                                   
   30 L1 VSCRU19UTE000 51000-17.   0.   0.   0.   0.                     2541000                                   
   31 L1 VSCRU31UT3001 51000-17.   0.   0.   0.   0.                     2541000                                   
   32 L1 VSCRU16UTE002 5 987-10. 350.-16.4-180. 242.                     2541000                                   
   35 L1 VCORUMBUHE002 5 98524.1201.6 -43.-180. 180.                     5121000                                   
   36 L1 VS.MESAUHE001 5 99934.8411.2-320.-320. 320.                     5111000                                   
   37 L1 TS.MESASIN001 5 97231.9   0.-267.-415. 287.                     5111000                                   
   38 L1 NGRAJA2SIN001 51003-21.   0.-2.62-120. 200.                     2511000                                   
   41 L1 TVITOR2SIN001 510143.06   0. -26. -30.  60.                     30210001                                  
   44 L1 NGRAJA1SIN001 5 986-21.   0.-61.3-120. 200.                     2511000                                   
   47 L1 TVITOR1SIN001 510143.06   0.-27.8 -30.  60.                     30210001                                  
   48 L1 QIBIUNASIN004 5 965-28.   0.-465.-720.1200.    86               2041000                                   
   50 L1 QTPRETOSIN001 51003-29.   0.54.97-180. 300.                     2011000                                   
   52 L  EGNA-I--RJ345 510775.66                                         2521000                                   
   53 L  QGNA1G-UTE003 510229.83 777. 19.9                               2521000                                   
   54 L  QGNA1V-UTE001 5102210.2 418.12.72                               2521000                                   
   56 L  IIVAIP3-PR069 6 885-25.                                         2011000                                   
   57 L  IIVAIP2-PR069 6 841-25.                                         201 960                                   
   58 L  UIVAIP2-PR000 61005-25.                                         201 9601                                  
   59 L  UIVAIP3-PR000 6 992-25.                                         20110001                                  
   60 L  AF.IGUA-PR765 1 994-15.                                         2011000                                   
   61 L  CFOZ60--PR500111041-13.                                         2401000                                   
   62 D  AIV-FZ1CAP765 11230  0.                                         20110002                                  
   63 L  AIV-FZ2CAP765 11009-27.                                         20110002                                  
   64 L  AIV-FZ3CAP765 11007-27.                                         20110342                                  
   65 L  AIVAIPO-PR765 11018-22.                                         2011000                                   
   66 L  BIVAIPA-PR525 21006-24.                                         1011000                                   
   67 L  IIVAIP1-PR069 6 841-25.                            .24   0.     2011000                                   
   68 L  UIVAIP1-PR000 61006-25.                                         20110001                                  
   69 L  AIV-IT1CAP765 11018-22.                                         20110002                                  
   70 L  AIV-IT2CAP765 1 998-21.                                         20110002                                  
   71 L  AIV-IT3CAP765 1 998-21.                                         20110302                                  
   72 L  AITABER-SP765 11028-24.                                         2011000                                   
   73 L  AIT-TP1CAP765 11028-24.                                         20110002                                  
   74 L  AIT-TP2CAP765 1 979-22.                                         20110002                                  
   75 L  AIT-TP3CAP765 1 977-22.                                         20110002                                  
   76 L  ATPRETO-SP765 1 996-25.                                         2011000                                   
   77 L  CTPRETO-SP500 31038-23.                                         2021000                                   
   78 L  ETPRETO-SP345 51007-28.                                         2041000                                   
   79 L  ITPRETO-SP069 6 885-23.                                         2011000                                   
   80 L  UTPRET3-SP000 6 998-23.                                         20110001                                  
   81 L  UTPRET4-SP000 6 989-29.                                         20110001                                  
   82 L  ETPRET2-SP345 51007-28.                                         2041000                                   
   84 L  GRESEN2-RJ138 5 996-19.                                         2551000                                   
   85 L  CFOZ50--PR500 31010-1.8                            60.   0.     2411000                                   
   86 L  EIBIUNA-SP345 51040-28.                                         2041000                                   
   87 L  CRESEND-RJ500 31060-17.                                         2511000                                   
   90 L  EVIANA--ES345 510694.96                                         3021010                                   
   91 L  NVIANT1-ES013 610602.89                                         3021010                                   
   92 L  CSB-SM1CAP500 3111022.9                                         51110002                                  
   93 L  CSB-SM2CAP500 3111923.8                                         51110002                                  
   94 L  CSB-SM3CAP500 3112323.6                                         51110002                                  
   95 L  NVIANT2-ES013 610602.88                                         3021010                                   
   96 L  NVIANT3-ES013 610602.87                                         3021000                                   
   99 L  CAS-AR1-SP500 31057-13.                                         20210002                                  
  100 L  CMARIMB-MG500 31043 4.2                                         3511000                                   
  101 L  CARARAQ-SP500 31034-7.2                                         2021000                                   
  102 L  CP.CALD-MG500 31050-11.                                         3511000                                   
  103 L  CCAMPIN-SP500 31037-20.                                         2021000                                   
  104 L  CC.PAUL-SP500 31059-16.                                         2021000                                   
  105 L  CANGRA--RJ500 31052-15.                                         2511000                                   
  106 L  CADRIAN-RJ500 31057-17.                                         2511000                                   
  107 L  CGRAJAU-RJ500 31055-19.                                         2511000                                   
  108 L  CS.JOSE-RJ500 31057-18.                                         2511000                                   
  110 L  UGR1T52-RJ000 61005-21.                                         25110001                                  
  112 L  CBA-IB1-PR500 31045-32.                                         10110002                                  
  113 L  CBA-IB2-PR500 31045-32.                                         10110002                                  
  114 L  CBA-IT1-PR500 31046-32.                                         10110002                                  
  115 L  CBA-IT1CAP500 31006-42.                                         10110002                                  
  116 L  GIMBTAP-RJ138 51016-20.                                         2561000                                   
  117 L  CCAMPO2-RJ500 3117516.4                                         2511000                                   
  118 L  UBANDT4-GO000 6 96918.5                                         51210001                                  
  119 L  NBANDT4-GO013 6 96918.5                                         5121000                                   
  120 L  EP.CALD-MG345 51002-15.                                         3521000                                   
  121 L  UPCAT51-MG000 6 992-16.                                         35110001                                  
  122 L  CIBIUNA-SP500 31056-27.                                         2021000                                   
  123 L  ECAMPIN-SP345 5 992-23.                                         2041000                                   
  124 L  UCAMP51-SP000 6 988-23.                                         20210001                                  
  125 L  CIB-BA1CAP500 31004-23.                                         20210002                                  
  126 L  EGUARUL-SP345 51012-30.                                         2041000                                   
  127 L  EMO-RL1-SP345 51000-28.                                         20410002                                  
  128 L  EMO-RL2-SP345 51000-28.                                         20410152                                  
  129 L  EMOGI---SP345 5 996-29.                                         2041000                                   
  130 L  CIB-BA2CAP500 31004-23.                                         20210002                                  
  131 L  EM.MORA-MG345 51004-2.1                                         3521000                                   
  133 L  UADRT1A-RJ000 61006-19.                                         25210001                                  
  134 L  ELCBARR-SP345 51006-.92                                         2041000                                   
  135 L  UJACT1A-RJ000 6 999-21.                                         25210001                                  
  136 L  EFURNAS-MG345 51027-5.7                                         3521000                                   
  137 L  UJACT2A-RJ000 6 999-21.                                         25210001                                  
  138 L  EITUTIN-MG345 51036-10.                                         3521000                                   
  139 L  UADRT51-RJ000 61018-17.                                         25110141                                  
  140 L  EADRIAN-RJ345 51020-17.                                         2521000                                   
  141 L  UADRT53-RJ000 61023-17.                                         25110001                                  
  142 L  UADRT55-RJ000 61023-17.                                         25110701                                  
  143 L  UADRT2B-RJ000 61006-19.                                         25210701                                  
  144 L  EJACARE-RJ345 51013-19.                                         2521000                                   
  145 L  UADRT1B-RJ000 61006-19.                                         25210001                                  
  146 L  UADRT2A-RJ000 61006-19.                                         25210001                                  
  147 L  ECAMPOS-RJ345 51074.768                                         2521000                                   
  148 L  UCAMPO1-RJ000 61078-1.7                                         25210001                                  
  149 L  EVITORI-ES345 510623.06                                         3021000                                   
  150 L  UVITAT1-ES000 61051.909                                         30210001                                  
  152 L  UVITAT2-ES000 61033.919                                         30210001                                  
  153 L  UVITAT3-ES000 61035.807                                         30210001                                  
  154 L  NVITAT2-ES013 61033.919                                         3021000                                   
  155 L  NVITAT3-ES013 61035.807                                         3021000                                   
  156 D  NVITAT4-ES013 6 982  0.                                         3021000                                   
  158 L  UVITAT4-ES000 610381.01                                         30210001                                  
  159 L  NJA-R30-RJ013 6 999-21.                                         2521000                                   
  160 L  NJB-R60-RJ013 6 975-21.                                         2521000                                   
  161 L  FMO-FCE-SP230 5 995-29.                                         2051000                                   
  162 L  UCAMAT1-SP000 6 977-25.                                         20410001                                  
  163 L  NCAMPI1-SP013 6 977-25.                                         2041000                                   
  164 L  UPCAT02-MG000 61044-17.                                         35210001                                  
  165 L  NP.CAL2-MG013 6 982-17.                                         3521000                                   
  166 L  UJACT1B-RJ000 61000-21.                                         25210001                                  
  167 L  NJA-R60-RJ013 6 999-21.                                         2521000                                   
  169 L  GSJOSE2-RJ138 51021-21.                                         2541000                                   
  170 L  GP.CALD-MG138 51028-17.                                         3591000                                   
  171 L  GCAMPI1-SP138 51007-25.                                         2071000                                   
  172 L  GIMBARE-RJ138 51008-23.                                         2561000                                   
  173 L  GADRIAN-RJ138 51025-19.                                         2561000                                   
  174 L  GR.LEAO-RJ138 51016-9.8                                         2581000                                   
  175 L  GCAMPOS-RJ138 51008-1.5                                         2591000                                   
  176 L  UCAMP54-SP000 6 988-23.                                         20210001                                  
  177 L  GVITOR1-ES138 510021.14                                         3041000                                   
  178 L  GGRAJAU-RJ138 51001-21.                                         2541000                                   
  179 L  UGR2T54-RJ000 61004-21.                                         25110001                                  
  180 L  GJACARE-RJ138 51006-21.                                         2541000                                   
  181 L  GANGDEF-RJ138 5 999-22.                                         2511037                                   
  182 L  GFUNIL--RJ138 5 998-19.                                         2551000                                   
  183 L  GC.PAUL-SP138 5 992-17.                                         2141000                                   
  184 L  GS.CRUZ-RJ138 51000-17.                                         2541000                                   
  185 L  GANGRA--RJ138 51001-5.8                                         2551000                                   
  186 L  NCAMP54-SP013 6 988-23.                                         2021000                                   
  187 L  GM.MORA-MG138 51019-3.4                                         3581000                                   
  189 L  UBGERT1-DF000 61017 21.                                         56310001                                  
  190 L  GP.COL--MG138 51015-3.6                                         2081000                                   
  192 L  NCAMPO1-RJ013 61078-1.7                                         2521000                                   
  194 L  NADRT55-RJ013 61023-17.                                         2511070                                   
  195 L  NADRT53-RJ013 61023-17.                                         2511000                                   
  196 L  NCAMP51-SP013 6 988-23.                                         2021000                                   
  197 L  NADRT51-RJ013 61018-17.                                         2511014                                   
  198 L  NPCALAT-MG013 6 992-16.                                         3511000                                   
  199 L  NVITAT1-ES013 61051.909                                         3021000                                   
  200 L  UUCAMP1-RJ000 61004-2.3                                         2591000                                   
  201 L  VRSIL-1UTE000 51004-2.3                                         2591000                                   
  202 L  UUCAMP2-RJ000 61004-2.3                                         2591000                                   
  203 L  VRSIL-2UTE000 51004-2.3                                         2591000                                   
  204 L  NADRT1B-RJ013 61006-19.                                         2521000                                   
  205 L  NADRT2A-RJ013 61006-19.                                         2521000                                   
  206 L  NADRT2B-RJ013 61006-19.                                         2521070                                   
  208 L  NBGERT1-DF013 61017 21.                                         5631000                                   
  209 L  NADRT1A-RJ013 61006-19.                                         2521000                                   
  210 L  CITUMBI-MG500 3107015.5                                         3511000                                   
  211 D  UCAMPO2-RJ000 6 989  0.                                         25210001                                  
  212 D  NCAMPO2-RJ013 6 989  0.                                         2521000                                   
  213 L  EMARIMB-MG345 510144.84                                         3521000                                   
  214 L  UMARIMB-MG000 610575.01                                         35110001                                  
  216 L  EP.COL--MG345 510215.51                                         3521000                                   
  217 L  EITUMBI-MG345 5102316.9                                         3521000                                   
  218 L  EBANDEI-GO345 5 99019.5                                         5121000                                   
  219 L  EB.SUL--DF345 5101225.2                                         5621000                                   
  220 L  ECORUMB-GO345 5102520.6                                         5121000                                   
  221 L  LB.GERA-DF034 5101621.2                                         5641000                                   
  222 L  UBSULT6-DF000 6101723.6                                         56210001                                  
  223 L  UBANDT1-GO000 6 96818.4                                         51210001                                  
  224 L  UBANDT2-GO000 6 96618.3                                         51210001                                  
  225 L  FITUMBI-MG230 5100018.1                                         3531000                                   
  226 L  FBANDEI-GO230 5 99518.6                                         5131000                                   
  227 L  FB.GERA-DF230 5101823.7                                         5631000                                   
  228 L  FB.SUL--DF230 5101623.8                                         5631000                                   
  229 L  FB.ALTO-GO230 5 99618.1                                         5131000                                   
  230 L  FS.MESA-GO230 5 99831.6                                         5131000                                   
  231 L  FR.VERD-GO230 5101122.4                                         5131000                                   
  232 L  NBSULT6-DF013 6101723.6                                         5621000                                   
  233 L  CSAMAMB-DF500 3110927.5                                         5611000                                   
  234 L  ESAMAMB-DF345 5101125.9                                         5621000                                   
  235 L  CS.MESA-GO500 3109331.9                                         5111000                                   
  236 L  GB.SUL--DF138 5 99822.8                                         5641000                                   
  237 L  GSAMAMB-DF138 5 984 25.                                         5641000                                   
  238 L  GR.VERD-GO138 5100121.8                                         5171000                                   
  239 L  GS.MESA-GO138 51021 30.                                         5181000                                   
  240 L  URVERT1-GO000 6 99321.8                                         51310001                                  
  241 L  NRVERT1-GO013 6 98421.8                                         5131000                                   
...
99999
DLIN
(De )d O d(Pa )NcEPM( R% )( X% )(Mvar)(Tap)(Tmn)(Tmx)(Phs)(Bc  )(Cn)(Ce)Ns(Cq)(1)(2)(3)(4)(5)(6)(7)(8)(9)(10 (U) Uop
   38       17954         3.0195         1.                     200.200.  200.                                 1   1
   44       11052             3.         1.                     200.200.  200.                                 1   1
   50        81 4          2.498         1.                     500.500.  500.                                 1   1
   52       147 1      .16 1.64627.714                          10581539  1539
   52       147 2      .16 1.646 27.71                          10581539  1539
   53        52 1          1.085        .95                     10351242  1449                                 1   1
   54        52 1          2.186        .95                     560.672.  784.                                 1   1
   56        59 3          3.385         1.                     550.550.  550.                                 1   1
   57        58 2          3.606         1.                     550.550.  550.                                 1   1
   60        62 1D    .076  1.85 927.8                          41334174  4174
   60        63 2     .076  1.85 929.1                          41335525  5525
   60        64 3     .082 1.899 954.5                          36834973  4973
   60     43810 2           .806      .9524                     15721729  1880                                 1   1
   60     43862 1           .743      .9524                     16501729  1880                                 1   1
   60     43899 3            .74      .9524                     15721815  1792                                 1   1
   60     43915 4           .746      .9524                     16501815  1792                                 1   1
   60     43921 5           .731      .9524                     16501980  2200                                 1   1
   61     43421 1     .116 1.999 245.8                          29103624  3623
   61     43422 2     .116 1.999 245.8                          29103624  3623
   61     43810 2          -.164         1.                     15721729  1880                                 1   1
   61     43862 1          -.121         1.                     16501729  1880                                 1   1
   61     43899 3          -.117         1.                     15721815  1792                                 1   1
   61     43915 4          -.123         1.                     16501815  1792                                 1   1
   61     43921 5          -.114         1.                     16501980  2200                                 1   1
   65        58 2           .823         1.                     16501815  1880                                 1   1
   65        59 3           .773         1.                     16501879  1897                                 1   1
   65        68 1           .843         1.                     16501815  2047                                 1   1
   66        68 1           -.17      1.005 .8381.053        99916501815322047                                 1   1
   67        68 1          3.649         1.                     550.550.  550.                                 1   1
   72        69 1 T   .064  1.53  760.                          41334174  4174
   72        70 2     .063  1.53 755.7                          41334174  4174
   72        71 3     .064  1.54  760.                          41334174  4174
   76        73 1 T   .072  1.75 877.5                          41334174  4174
   76        74 2     .072  1.75  873.                          41334174  4174
   76        75 3 T   .078  1.79 898.2                          41334174  4174
   76        80 3           .697         1.                     16501815  1995                                 1   1
   76        81 4          1.028         1.                     15001650  1650                                 1   1
   76     41512 5           .993         1.                     15001650  1650                                 1   1
   76     41514 6           .983         1.                     15001650  1650                                 1   1
   76     41516 7           .931         1.                     15001800  1800                                 1   1
   76     41518 1           .839         1.                     16501650  1650                                 1   1
   76     41520 2           .817         1.                     16501815  1815                                 1   1
   77        80 3           -.03      1.041  .88 1.16         7716501815321995                                 1   1
   77       104 1 T   .167  2.54 216.6                          18552337  2337
   77       598 1 T   .106 1.441 133.4                          18552252  2252
   77      3383 1     .114 1.712259.62                          27282728  2728
   77     41518 1          -.165      1.041  .88 1.16         7716501650331650                                 1   1
   77     41520 2          -.162      1.041  .88 1.16         7716501815331815                                 1   1
   78        81 4          -.107      1.016 .8591.115         7815001650321650                                 1   1
   78       449 1 T  .0742 .6448 11.34                          11841184  1392
   78       449 2 T  .0742 .6448 11.34                          11841184  1392
   78       464 3 T  .1089  .973 17.07                          912.1103  1103
   78       471 1    .0922 .8014 14.08                          11841392  1392
   78       471 2    .0922 .8014  14.1                          11841392  1392
   78       474 1     .068  .944  21.2                          12801613  1613
   78     41512 5          -.093      1.016 .8591.115         7815001650331650                                 1   1
   78     41820 1     .001  .001                                99999999  9999
   78     41823 1     .001  .001                                99999999  9999
   79        80 3          3.545         1.                     550.550.  550.                                 1   1
   82        86 1 T   .187 2.602  60.1                          12801613  1613
   82       449 3 T    .06   .63 12.84                          13501350  1350
   82       449 4 T    .06   .63 12.84                          13501350  1350
   82     41514 6          -.092      1.017 .8591.115         8215001650331650                                 1   1
   82     41516 7          -.058      1.017 .8591.115         8215001800331800                                 1   1
   82     41821 1     .001  .001                                99999999  9999
   82     41822 1     .001  .001                                99999999  9999
   84      1780 1       .7  1.78  .454                          120.120.  120.
   84      1780 2       .7  1.78  .454                          120.120.  120.
   84     11797 1      .32  .815 .2079                          122.130.  122.
   84     21797 1      .32  .815 .2079                          122.130.  122.
   84     42417 5     .004-1.667         1.                     300.359.  419.                                 1   1
   85      1103 3 T  .0058.10069 10.04                          27283377  3377
   85      1103 4 T .00564.09795  9.69                          27283377  3377
   86        48 1         .71475       1.04                     10501050  1050                                 1   1
   86       474 1     .155 2.162  49.5                          12801613  1613
   86       488 1    .09481.4987 41.91                          20202390  2390
   86       488 2    .09481.4987 41.91                          20202390  2390
   86     41522 1           -.25      1.042 .8951.048       -122750.750.32750.                                 1   1
   86     41524 2          -.254      1.042 .8951.048       -122750.750.32750.                                 1   1
   86     41526 3           .236      1.042 .8951.048       -122750.900.321050                                 1   1
   87     42417 5     .121 4.833      1.067   .9  1.1        -84300.359.21419.                                 1   1
   87     42426 1          8.333         1.                     150.180.  180.                                 1   1
   87     42428 2         11.458         1.                     120.144.  144.                                 1   1
   90      2608 1          4.847      1.005                     225.270.  304.                                 1   1
   90      2618 2          4.861      1.005                     225.270.  304.                                 1   1
   90      2628 3           4.65      1.005                     225.270.  304.                                 1   1
   90      3032 1 T   .225 2.468 41.54                          747.747.  747.
   90     42441 4          3.081      1.005                     400.480.  560.                                 1   1
   91      2608 1            9.7         1.                      75. 75.   75.                                 1   1
   95      2618 2          9.773         1.                      75. 75.   75.                                 1   1
   96      2628 3           9.83         1.                      75. 75.   75.                                 1   1
   99       101 1     .198 3.098 317.5                          20002000  2000
   99       556 1     .001  .001       1.05                     99999999  9999                                 1   1
  100        20 1           1.58         1.                     16201620  1620                                 1   1
  100       214 9          2.979         1.                     560.717.  717.                                 1   1
  100       535 1 T   .153 2.356 203.8                          17321732  1732
  100      3110 1    .12531.8381 160.4                          19922390  2390
  100      4598 1     .006  .097   7.4                          18552337  2337
  100      4598 2     .006  .086   7.2                          18552337  2337
  100      4598 3    .0064 .0824 7.176                          19922390  2390
  101       102 1     .156  2.46 208.5                          18552337  2337
  101       103 1      .15  2.39 202.6                          18552337  2337
  102       12151          2.911       1.05                     560.717.  717.                                 1   1
  102      1503 1     .129 1.993 167.7                          18552337  2337
  103       12451          2.946       1.05                     560.717.  717.                                 1   1
  103       17654         2.9116       1.05                     560.728.  728.                                 1   1
  103       609 1      .06  .946 76.26                          18552337  2337
  103      6609 1     .024  .368  31.7                          18552337  2337
  103      6609 2     .017  .26738.833                          24773464  3464
  104        87 1     .051  .782  66.5                          18552337  2337
  104       598 1     .075  1.15  98.9                          18552252  2252
  104       609 1     .148 2.347 193.3                          18552337  2337
  104      1503 1     .052  .792  66.5                          18552337  2337
  104      3010 1     .189 3.158 709.6                          24423464  3464
  104      3010 2     .189 3.158 709.6                          24423464  3464
  104      3383 1     .014  .205 30.35                          27282728  2728
  104      9626 1     .098  1.68  252.                          24732598  2598
  104     4166457         4.7375       1.05                     250.263.  270.                                 1   1
  104     4166659         4.9492       1.05                     250.270.  283.                                 1   1
  105        10 1           1.97      1.075                     777.777.  777.                                 1   1
  105        11 1            .95      1.075                     14771477  1477                                 1   1
  105       104 1     .093 1.456 122.5                          18552337  2337
  105      9601 1     .092 1.363 115.3                          18552337  2337
  105      9608 1 T   .101 1.518 127.8                          18552337  2337
  105     4240158          3.988       1.05                     400.400.  400.                                 1   1
  106       107 1     .033  .673 72.57                          25982598  2598
  106       108 1     .019  .389  42.1                          25982598  2598
  106       13951          1.962       1.05                     560.644.  672.                                 1   1
  106       14153          3.042       1.05                     560.672.  784.                                 1   1
  106       14255           2.93       1.05                     560.716.  716.                                 1   1
  106      9626 1     .012  .193 29.69                          24732598  2598
  107       11052          2.141       1.05                     600.720.  840.                                 1   1
  107       17954           2.15       1.05                     600.720.  840.                                 1   1
  107     4240756          2.142       1.05                     600.720.  840.                                 1   1
  107     4240858          2.114       1.05                     600.720.  840.                                 1   1
  108     4243111          2.327       1.05                     600.660.  684.                                 1   1
  108     4243212            2.3       1.05                     600.660.  684.                                 1   1
  108     4243313           2.27       1.05                     600.720.  840.                                 1   1
  108     4243414          2.288       1.05                     600.720.  840.                                 1   1
  112       895 1     .001  .001       1.05                     99999999  9999                                 1   1
  113       895 2     .001  .001       1.05                     99999999  9999                                 1   1
  114       895 1     .001  .001       1.05                     99999999  9999                                 1   1
  115      6609 1     .263  4.25  659.                          29103668  3668
  116       172 4D    .125  .722  .207                          145.145.  145.
  116       173 4     .625 3.608 1.003                          153.193.  193.
  117      4353 1     .131 2.346 348.3                          28023403  3403
  117      4353 2     .132  2.34 348.3                          28023403  3403
  119       118 4         15.049         1.                     999.999.  999.                                 1   1
  120       12151          -.522      1.0091.009 1.11        120560.717.10717.                                 1   1
  120       126 1       .6  5.95  92.8                          776.977.  977.
  120       126 2     .606  6.02  93.8                          776.977.  977.
  120       164 2     .031 7.624       .957                     150.180.  210.                                 1   1
  120       697 1     .394  4.39 74.85                          853.1075  1075
  120     42000 1          7.754       .957                     150.160.  160.                                 1   1
  120     42002 3          8.027       .957                     150.161.  161.                                 1   1
  120     42004 4            7.2       .957                     150.150.  150.                                 1   1
  120     42006 5           4.54       .957                     225.270.  315.                                 1   1
  120     42008 6          4.556       .957                     225.270.  315.                                 1   1
  122      6609 1     .079 1.214 103.2                          18552337  2337
  122     41522 1         1.8016       1.05                     750.750.  750.                                 1   1
  122     41524 2         1.7995       1.05                     750.750.  750.                                 1   1
  122     41526 3         1.2804       1.05                     750.900.  1050                                 1   1
  123       120 1 T   .359 3.945  66.7                          853.1075  1075
  123       12451          -.528      1.004  .95 1.11        123560.717.17717.                                 1   1
  123       162 1          5.563      1.004                     149.176.  176.                                 1   1
  123       17654          -.413      1.004  .95 1.11        123560.728.17728.                                 1   1
  123     41504 2            5.6      1.004                     149.176.  176.                                 1   1
  123     41505 3         6.0166      1.004                     149.176.  181.                                 1   1
  123     41506 4         5.6033      1.004                     149.176.  181.                                 1   1
  123     41507 5           5.63      1.004                     149.194.  194.                                 1   1
  125       112 1     .308 3.958 444.8                          12992252  2252
  126        86 1     .109 1.826  51.2                          17072150  2150
  126        86 2     .109 1.824  51.2                          17072150  2150
  126       123 1     .252 2.761  46.5                          853.1075  1075
  126       442 1     .116 1.132  17.7                          776.977.  977.
  129       442 1 T   .067   .66  10.1                          776.977.  977.
  129     41660 1          2.436         1.                     500.590.  615.                                 1   1
  129     41662 2          2.339         1.                     500.590.  615.                                 1   1
  130       113 2     .308 3.958 444.8                          12992252  2252
  131        22 1           5.54         1.                     378.378.  378.                                 1   1
  131      3012 1     .038  .427 6.673                          853.1075  1075
  131     4202211          2.686         1.                     400.480.  560.                                 1   1
  131     4202413          2.526         1.                     400.480.  560.                                 1   1
  134        12 1           1.78       .999                     11801180  1180                                 1   1
  134        13 1           5.34       .999                     99999999  9999                                 1   1
  134       120 1      .56  6.16 105.3                          853.1075  1075
  134       120 2      .55  6.13 107.7                          853.1075  1075
  134      3012 1     .071  .755 12.92                          853.1075  1075
  134      3012 2     .071  .755 12.79                          853.1075  1075
  136        16 1           2.56         1.                     12801280  1280                                 1   1
  136        17 1           7.68         1.                     99999999  9999                                 1   1
  136       120 1 T    .44   4.3  66.6                          776.977.  977.
  136       120 2 T    .44  4.33  66.6                          776.977.  977.
  136       131 1     .358 3.383 52.96                          776.956.  956.
  136       138 1      .65  6.46 100.8                          776.977.  977.
  136       367 1 T    .22  2.18  33.4                          776.977.  977.
  136       367 2 T    .18  1.79 34.29                          11321132  1132
  136      4360 1     .456 4.944 83.45                          853.1075  853.
  138       331 1    .42234.0862 73.67                          11591159  1159
  138      9013 1     .325 3.207 58.69                          11231383  1383
...
99999
DCSC
(De ) O  (Pa )NcEPB      (Xmin)(Xmax)( Xv )C ( Vsp) (Ext)Nst(Cn)(Ce)(Cq)(1)(2)(3)(4)(5)(6)(7)(8)(9)(10
47222     6445 2          -.554 -.554 -.554X  -.554 47222   173423412341
   63       65 2          -.749 -.749 -.749X  -.749    63   368441744174
   64       65 3          -.749 -.749 -.749X  -.749    64   368441744174
   65       69 1  L       -.778 -.778 -.778X  -.778    65   368441744174
   65       70 2          -.778 -.778 -.778X  -.778    65   368441744174
   65       71 3          -.778 -.778 -.778X  -.778    65   368441744174
   72       73 1  L       -.915 -.915 -.915X  -.915    72   368441744174
   72       74 2          -.915 -.915 -.915X  -.915    72   368441744174
   72       75 3          -.915 -.915 -.915X  -.915    72   368441744174
   78       82 1                       1.26X   1.26    78   450.450.598.
  114      115 1         -2.124-2.124-2.124X -2.124   114   193121241931
  122      125 1         -2.051-2.051-2.051X -2.051   122   19312251532.
  122      130 2         -2.051-2.051-2.051X -2.051   122   19312251532.
  127      129 1                        .76X    .76   127   956.956.912.
  128      129 2                        .76X    .76   128   956.956.912.
  225     4504 1          -5.93 -5.93 -5.93X  -5.93   225   210.265.265.
  225     4505 2          -9.53 -9.53 -9.53X  -9.53   225   438.478.478.
  231     4507 1          -5.93 -5.93 -5.93X  -5.93   231   210.265.265.
  231     4511 2         -11.27-11.27-11.27X -11.27   231   438.478.478.
  233       92 1          -1.86 -1.86 -1.86X  -1.86   233   173220782337
  233       93 2          -1.27 -1.27 -1.27X  -1.27   233   173220782337
  233       94 3          -1.27 -1.27 -1.27X  -1.27   233   173220782337
  235     7236 1          -.637 -.637 -.637X  -.637   235   173220782338
  235     7237 2          -.637 -.637 -.637X  -.637   235   173223382338
  277    45073 1                      1.575X  1.575   277   359.359.359.
  277    45074 2                      1.575X  1.575   277   359.359.359.
  299     3005 1          -.985 -.985 -.986X  -.986   299   160221632163
  328      330 7                        6.3X    6.3   328   150.173.173.
 3007     3006 1          -.985 -.985 -.986X  -.986  3007   160221632163
 3007     3050 1         -.8847-.8847 -.856X  -.856  3007   207828062806
 4502     4540 2         -6.127-6.127-6.127X -6.127  4502   438.592.592.
 4502     4541 1         -5.959-5.959-5.959X -5.959  4502   233.294.294.
 4510      231 1          -6.51 -6.51 -6.51X  -6.51  4510   210.265.265.
 4522     4524 1          -5.73 -5.73 -5.73X  -5.73  4522   398.538.538.
 4531     4588 3         -1.355-1.355-1.355X -1.355  4531   187120592526
 4565     4496 3          -1.47 -1.47 -1.47X  -1.47  4565   170718782304
 4565     4497 2         -1.629-1.629-1.629X -1.629  4565   170718782304
 4565     4563 1         -1.628-1.628-1.628X -1.628  4565   170718782304
 4574     4565 3         -1.515-1.515-1.515X -1.515  4574   160717682169
 4578     4565 1         -2.064-2.064-2.064X -2.064  4578   160717682169
 4579     4565 2         -2.064-2.064-2.064X -2.064  4579   160717682169
 4581    46496 2                     10.502X 10.502  4581   999999999999
 4586    46495 1                     10.502X 10.502  4586   999999999999
 5158     5157 6 T                    16.28X  16.28  5158    40. 43. 48.
 5160     5159 7 T                    16.28X  16.28  5160    40. 43. 48.
 5166     6715 5 T                    16.28X  16.28  5166    40. 48. 48.
 5436     5435 3         -1.756-1.756-1.756X -1.756  5436   15591992365.
 5436     5437 1         -1.908-1.908-1.908X -1.908  5436   15591992672.
 5436     5575 2         -1.908-1.908-1.908X -1.908  5436   155919921992
 5436     5576 4         -1.756-1.756-1.756X -1.756  5436   15591992147.
 5570     5577 2         -1.539-1.539-1.539X -1.539  5570   15591992686.
 5580     6517 1         -1.096-1.096-1.096X -1.096  5580   19922685 85.
 6082    47222 5 T        -.598 -.598 -.598X  -.598  6082   173423412341
 6360     6080 5          -.598 -.598 -.598X  -.598  6360   173423411734
 6360     6443 2          -.554 -.554 -.554X  -.554  6360   173423412341
 6360     6446 2           -.85  -.85  -.85X   -.85  6360   216529222922
 6400     6507 4           -.72  -.72  -.72X   -.72  6400   199226851992
 6400     6509 3           -.72  -.72  -.72X   -.72  6400   19922685127.
 6410     6430 1                         .8X     .8  6410   225222522252
 6440     7306 1          -1.58 -1.58 -1.58X  -1.58  6440   164522211645
 6444     6442 1         -.8847-.8847-.8847X -.8847  6444   207828062806
 6489     6487 1          -5.53 -5.53 -5.53X  -5.53  6489   558.686.150.
 6700     6701 1           -.79  -.79  -.79X   -.79  6700   19922685107.
 6700     6702 1         -1.096-1.096-1.096X -1.096  6700   19922685 90.
 6700     6703 2           -.79  -.79  -.79X   -.79  6700   199226852685
 7100     7101 1          -.953 -.953 -.953X  -.953  7100   173220782338
 7100     7102 1          -.953 -.953 -.953X  -.953  7100   194923382630
 7100     7103 2           -.95  -.95  -.95X   -.95  7100   173220142338
 7100     7104 2           -.95  -.95  -.95X   -.95  7100   194922652630
 7100     7105 3          -.952 -.952 -.952X  -.952  7100   194921432630
 7100     7235 1          -.536 -.536 -.536X  -.536  7100   194921432630
 7113     7238 1         -1.412-1.412-1.412X -1.412  7113   216529232923
 7190     7197 2           -.85  -.85  -.85X   -.85  7190   216529222922
 7200     7201 1           -.95  -.95  -.95X   -.95  7200   194921432630
 7200     7203 2           -.95  -.95  -.95X   -.95  7200   194922652630
 7200     7209 3          -.952 -.952 -.952X  -.952  7200   194921432630
 7300     7301 1           -.95  -.95  -.95X   -.95  7300   129919491949
 7300     7302 1           -.95  -.95  -.95X   -.95  7300   129919491732
 7300     7303 2           -.95  -.95  -.95X   -.95  7300   142919491949
 7300     7304 2           -.95  -.95  -.95X   -.95  7300   142919491949
 7300     7305 3          -.952 -.952 -.952X  -.952  7300   144419491949
 7591     5590 1         -1.588-1.588-1.588X -1.588  7591   142919491429
 7593     5590 2         -1.588-1.588-1.588X -1.588  7593   142919491429
 8100     8101 1         -1.971-1.971-1.971X -1.971  8100   20182724 86.
 8100     8102 2         -1.971-1.971-1.971X -1.971  8100   20182724125.
 8100     8103 1          -.911 -.911 -.911X  -.911  8100   19402619103.
 8100     8104 2          -.911 -.911 -.911X  -.911  8100   19402619115.
 8200     8201 1           -.91  -.91  -.91X   -.91  8200   19402619218.
 8200     8202 2           -.91  -.91  -.91X   -.91  8200   19402619 27.
 8200     8203 1         -1.273-1.273-1.273X -1.273  8200   17322338 32.
 8200     8204 2         -1.273-1.273-1.273X -1.273  8200   17322338 80.
 8300     8301 1         -1.273-1.273-1.273X -1.273  8300   17322338 92.
 8300     8302 2         -1.273-1.273-1.273X -1.273  8300   17322338 95.
 8300     8303 1         -1.219-1.219-1.219X -1.219  8300   16452221 57.
 8300     8304 2         -1.219-1.219-1.219X -1.219  8300   16452221 98.
 8400     8401 1         -1.219-1.219-1.219X -1.219  8400   16452221137.
 8400     8402 2         -1.219-1.219-1.219X -1.219  8400   16452221103.
 8400     8403 1          -.832 -.832 -.832X  -.832  8400   15932151125.
 8400     8404 2          -.832 -.832 -.832X  -.832  8400   15932151103.
 8500     8405 1          -.832 -.832 -.832X  -.832  8500   15932151 81.
 8500     8406 2          -.832 -.832 -.832X  -.832  8500   15932151956.
 9245    10617 1                        30.X    30.  9245   999999999999
 9301    10618 2                        30.X    30.  9301   999999999999
 9753     1309 6                     13.127X 13.127  9753   999999999999
 9754     1343 7                     13.127X 13.127  9754   999999999999
41001    41028 1                     15.753X 15.753 41001   999999999999
41002    41029 2                     15.753X 15.753 41002   999999999999
41003    41072 1                        21.X    21. 41003   999999999999
41006    10701 2                      15.59X  15.59 41006   999999999999
41007    10702 3                      15.76X  15.76 41007   999999999999
41132    10703 3                     16.541X 16.541 41132   999999999999
42226      330 8                        6.3X    6.3 42226   150.167.191.
43166    10619 3                     17.328X 17.328 43166   999.999.999.
43167    10620 4                     15.753X 15.753 43167   999.999.999.
43672     4591 1         -1.652-1.652-1.652X -1.652 43672   151216632041
43673     4595 2         -1.256-1.256-1.256X -1.256 43673   187120592526
43797     6898 1          -9.88 -9.88 -9.88X  -9.88 43797   343.462.478.
43798     6899 2          -9.88 -9.88 -9.88X  -9.88 43798   343.462.494.
43799     6934 3         -9.565-9.565-9.565X -9.565 43799   343.462.558.
43800     4508 1          -6.51 -6.51 -6.51X  -6.51 43800   210.265.265.
43952     5572 5          -1.88 -1.88 -1.88X  -1.88 43952   151520462046
43953     5574 6          -2.11 -2.11 -2.11X  -2.11 43953   151515592046
43954     6513 1          -1.37 -1.37 -1.37X  -1.37 43954   168916891921
43955     6512 1          -1.37 -1.37 -1.37X  -1.37 43955   16891689 30.
43956     6515 2          -1.14 -1.14 -1.14X  -1.14 43956   19922598200.
43957     6514 2          -1.14 -1.14 -1.14X  -1.14 43957   19922598400.
43958     6510 1  L        -.88  -.88  -.88X   -.88 43958   199225982598
43959     6511 2           -.72  -.72  -.72X   -.72 43959   199225982598
   62       65 1DTL        -.73  -.73  -.73X   -.73    62   368441744174
99999
DBSH
(NFr) O (NTo) Nc C (Vmn (Vmx Bctrl (Qini) T A (Extr
   56            D 0400 1900    56  -360. C         
(G  O E (U) UOp (Sht ) M
10        2   2  -180. S
FBAN
(NFr) O (NTo) Nc C (Vmn (Vmx Bctrl (Qini) T A (Extr
   57            D 0400 1900    57  -540. C         
(G  O E (U) UOp (Sht ) M
10        3   3  -180. S
FBAN
(NFr) O (NTo) Nc C (Vmn (Vmx Bctrl (Qini) T A (Extr
   60      62  1 F 0900 1046    60        C      60 
(G  O E (U) UOp (Sht ) M
10        1   1  -330. N
FBAN
(NFr) O (NTo) Nc C (Vmn (Vmx Bctrl (Qini) T A (Extr
   60      63  2 F 0900 1046    60  -330. C      60 
(G  O E (U) UOp (Sht ) M
10        1   1  -330. N
FBAN
(NFr) O (NTo) Nc C (Vmn (Vmx Bctrl (Qini) T A (Extr
   60      64  3 F 0900 1046    60  -330. C      60 
(G  O E (U) UOp (Sht ) M
10        1   1  -330. N
FBAN
(NFr) O (NTo) Nc C (Vmn (Vmx Bctrl (Qini) T A (Extr
   60      62  1 F 0900 1046    62        C      62 
(G  O E (U) UOp (Sht ) M
10        1   1  -150. N
FBAN
(NFr) O (NTo) Nc C (Vmn (Vmx Bctrl (Qini) T A (Extr
   60      63  2 F 0900 1046    63  -150. C      63 
(G  O E (U) UOp (Sht ) M
10        1   1  -150. N
FBAN
(NFr) O (NTo) Nc C (Vmn (Vmx Bctrl (Qini) T A (Extr
   60      64  3 F 0900 1046    64  -150. C      64 
(G  O E (U) UOp (Sht ) M
10        1   1  -150. N
FBAN
(NFr) O (NTo) Nc C (Vmn (Vmx Bctrl (Qini) T A (Extr
   65            D 0900 1046    65  -330. C         
(G  O E (U) UOp (Sht ) M
10        1   1  -330. S
FBAN
(NFr) O (NTo) Nc C (Vmn (Vmx Bctrl (Qini) T A (Extr
   67            D 0400 1900    67  -540. C         
(G  O E (U) UOp (Sht ) M
10        3   3  -180. S
FBAN
(NFr) O (NTo) Nc C (Vmn (Vmx Bctrl (Qini) T A (Extr
   72      69  1 F 0900 1046    69  -330. C      69 
(G  O E (U) UOp (Sht ) M
10        1   1  -330. N
FBAN
(NFr) O (NTo) Nc C (Vmn (Vmx Bctrl (Qini) T A (Extr
   72      70  2 F 0900 1046    70  -330. C      70 
(G  O E (U) UOp (Sht ) M
10        1   1  -330. N
FBAN
(NFr) O (NTo) Nc C (Vmn (Vmx Bctrl (Qini) T A (Extr
   72      71  3 F 0900 1046    71  -330. C      71 
(G  O E (U) UOp (Sht ) M
10        1   1  -330. N
FBAN
(NFr) O (NTo) Nc C (Vmn (Vmx Bctrl (Qini) T A (Extr
   72            D 0900 1046    72 -987.6 C         
(G  O E (U) UOp (Sht ) M
10        3   3 -329.2 S
FBAN
(NFr) O (NTo) Nc C (Vmn (Vmx Bctrl (Qini) T A (Extr
   72      69  1 F 0900 1046    72  -330. C      72 
(G  O E (U) UOp (Sht ) M
10        1   1  -330. N
FBAN
(NFr) O (NTo) Nc C (Vmn (Vmx Bctrl (Qini) T A (Extr
   72      70  2 F 0900 1046    72  -330. C      72 
(G  O E (U) UOp (Sht ) M
10        1   1  -330. N
FBAN
(NFr) O (NTo) Nc C (Vmn (Vmx Bctrl (Qini) T A (Extr
   72      71  3 F 0900 1046    72  -330. C      72 
(G  O E (U) UOp (Sht ) M
10        1   1  -330. N
FBAN
(NFr) O (NTo) Nc C (Vmn (Vmx Bctrl (Qini) T A (Extr
   76      73  1 F 0900 1046    76  -330. C      76 
(G  O E (U) UOp (Sht ) M
10        1   1  -330. N
FBAN
(NFr) O (NTo) Nc C (Vmn (Vmx Bctrl (Qini) T A (Extr
   76      74  2 F 0900 1046    76  -330. C      76 
(G  O E (U) UOp (Sht ) M
10        1   1  -330. N
FBAN
(NFr) O (NTo) Nc C (Vmn (Vmx Bctrl (Qini) T A (Extr
   76      75  3 F 0900 1046    76  -330. C      76 
(G  O E (U) UOp (Sht ) M
10        1   1  -330. N
FBAN
(NFr) O (NTo) Nc C (Vmn (Vmx Bctrl (Qini) T A (Extr
   79            D 0400 1900    79  -360. C         
(G  O E (U) UOp (Sht ) M
10        2   2  -180. S
FBAN
(NFr) O (NTo) Nc C (Vmn (Vmx Bctrl (Qini) T A (Extr
   85            F 1000 1100    85   980. C         
(G  O E (U) UOp (Sht ) M
10        3   1   280. S
20        2   2   350. S
FBAN
(NFr) O (NTo) Nc C (Vmn (Vmx Bctrl (Qini) T A (Extr
   86            F 0950 1050    86 1566.6 C         
(G  O E (U) UOp (Sht ) M
10        2   2    59. S
20        3   2  220.8 S
30        4   3   237. S
40        1   0  279.8 S
50        2   0   294. S
60        2   1   296. S
FBAN
(NFr) O (NTo) Nc C (Vmn (Vmx Bctrl (Qini) T A (Extr
   87            F 1000 1100    87        C         
(G  O E (U) UOp (Sht ) M
10    D   1   1  -200. S
FBAN
(NFr) O (NTo) Nc C (Vmn (Vmx Bctrl (Qini) T A (Extr
   90            D 0950 1050    90        C         
(G  O E (U) UOp (Sht ) M
10        1   0   -60. S
FBAN
(NFr) O (NTo) Nc C (Vmn (Vmx Bctrl (Qini) T A (Extr
  235      92  1 F 1000 1100    92   -73. C      92 
(G  O E (U) UOp (Sht ) M
10        1   1   -73. N
FBAN
(NFr) O (NTo) Nc C (Vmn (Vmx Bctrl (Qini) T A (Extr
  235      93  2 F 1000 1100    93  -136. C      93 
(G  O E (U) UOp (Sht ) M
10        1   1  -136. N
FBAN
(NFr) O (NTo) Nc C (Vmn (Vmx Bctrl (Qini) T A (Extr
  235      94  3 F 1000 1100    94  -136. C      94 
(G  O E (U) UOp (Sht ) M
10        1   1  -136. N
FBAN
(NFr) O (NTo) Nc C (Vmn (Vmx Bctrl (Qini) T A (Extr
   99     101  1 D 1000 1100    99  -90.7 C      99 
(G  O E (U) UOp (Sht ) M
10        1   1  -90.7 S
FBAN
(NFr) O (NTo) Nc C (Vmn (Vmx Bctrl (Qini) T A (Extr
  210     100  1 D 1000 1100   100  -100. C     100 
(G  O E (U) UOp (Sht ) M
10        1   1  -100. S
FBAN
(NFr) O (NTo) Nc C (Vmn (Vmx Bctrl (Qini) T A (Extr
  100    4598  2 D 1000 1100   100        C     100 
(G  O E (U) UOp (Sht ) M
10        1   0  -100. S
FBAN
(NFr) O (NTo) Nc C (Vmn (Vmx Bctrl (Qini) T A (Extr
  100    4598  3 D 1000 1100   100        C     100 
(G  O E (U) UOp (Sht ) M
10        1   0  -100. S
FBAN
(NFr) O (NTo) Nc C (Vmn (Vmx Bctrl (Qini) T A (Extr
   99     101  1 F 1000 1100   101 -73.47 C     101 
(G  O E (U) UOp (Sht ) M
10        1   1 -73.47 N
FBAN
(NFr) O (NTo) Nc C (Vmn (Vmx Bctrl (Qini) T A (Extr
  101     102  1 F 1000 1100   101   -73. C     101 
(G  O E (U) UOp (Sht ) M
10        1   1   -73. N
FBAN
(NFr) O (NTo) Nc C (Vmn (Vmx Bctrl (Qini) T A (Extr
  101     103  1 F 1000 1100   101   -73. C     101 
(G  O E (U) UOp (Sht ) M
10        1   1   -73. N
FBAN
(NFr) O (NTo) Nc C (Vmn (Vmx Bctrl (Qini) T A (Extr
...